sim-outorder.c: In function ‘ruu_dispatch’:
sim-outorder.c:3760:7: warning: variable ‘br_taken’ set but not used [-Wunused-but-set-variable]
 3760 |   int br_taken, br_pred_taken;  /* if br, taken?  predicted taken? */
      |       ^~~~~~~~
sim-outorder.c: In function ‘sim_main’:
sim-outorder.c:4494:17: warning: variable ‘target_PC’ set but not used [-Wunused-but-set-variable]
 4494 |       md_addr_t target_PC;  /* actual next/target PC address */
      |                 ^~~~~~~~~
In file included from sim-outorder.c:73:
dlite.h:197:6: warning: ‘addr’ may be used uninitialized in this function [-Wmaybe-uninitialized]
  197 |    ? __check_break((NPC), (ACCESS), (ADDR), (ICNT), (CYCLE))  \
      |      ^~~~~~~~~~~~~
sim-outorder.c:3752:13: note: ‘addr’ was declared here
 3752 |   md_addr_t addr;   /* effective address, if load/store */
      |             ^~~~
In file included from sim-outorder.c:73:
dlite.h:197:6: warning: ‘is_write’ may be used uninitialized in this function [-Wmaybe-uninitialized]
  197 |    ? __check_break((NPC), (ACCESS), (ADDR), (ICNT), (CYCLE))  \
      |      ^~~~~~~~~~~~~
sim-outorder.c:3758:7: note: ‘is_write’ was declared here
 3758 |   int is_write;    /* store? */
      |       ^~~~~~~~
sim-outorder.c:3915:8: warning: ‘target_PC’ may be used uninitialized in this function [-Wmaybe-uninitialized]
 3914 |    || ((MD_OP_FLAGS(op) & (F_CTRL|F_DIRJMP)) == (F_CTRL|F_DIRJMP)
      |        ~~~~~~~~~~~~~~~~~~~~~~~~~~~~~~~~~~~~~~~~~~~~~~~~~~~~~~~~~~
 3915 |        && target_PC != pred_PC && br_pred_taken))
      |        ^~~~~~~~~~~~~~~~~~~~~~~
sim-outorder.c:3751:13: note: ‘target_PC’ was declared here
 3751 |   md_addr_t target_PC;   /* actual next/target PC address */
      |             ^~~~~~~~~
